; Exported Synergi model for Epanet
; Please note that not all items can be exported exactly from Synergi to Epanet
; Please review the export log file for comments about the export
; Please review all data carefully for changes during the export process
; The model is provided "as-is".  Please validate carefully
[TITLE]
                                                                                                                                                                                                                                                               
                                                                                                                                                                                                                                                               
                                                                                                                                                                                                                                                               

[OPTIONS]
ACCURACY 0.001000
CHECKFREQ 2
MAXCHECK 10
DAMPLIMIT 0.100000
VISCOSITY 1.106726
DEMAND MULTIPLIER 1.000000
SPECIFIC GRAVITY 1.000000
TRIALS 100
HEADLOSS D-W
PATTERN ~FLAT
UNITS LPS

[TIMES]
DURATION             24:00:00
HYDRAULIC TIMESTEP   00:15:00
QUALITY TIMESTEP     00:06:00
PATTERN TIMESTEP     00:15:00
PATTERN START        00:00:00
REPORT TIMESTEP      00:15:00
REPORT START         00:00:00
START CLOCKTIME      00:00:00 AM
STATISTIC            NONE

[JUNCTIONS]
40939934_28596134 130.199993
40937761_28597490 130.324004
40897925_28625513 126.484006
40898022_28625259 126.735004
40914350_28595788 130.578993
40918416_28589669 131.000000
40941519_28596922 131.000000
40945300_28598688 131.000000
40932741_28567091 124.436001
40933850_28563147 123.042997
40938419_28549503 120.184000
40945869_28544834 122.117993
40900994_28617406 128.893998
40969124_28540737 128.113004
40969064_28540731 128.113004
40897825_28625763 126.484006
40932025_28542550 118.999998
40934753_28540572 119.008006
40963163_28540072 126.933002
40924025_28606063 131.985995
40960338_28518619 123.693004
40897506_28626588 126.244002
40876797_28607759 118.672994
40875578_28609991 117.106002
40952313_28551803 125.000003
40959566_28547738 126.158993
40954406_28588403 129.000001
40955438_28590013 128.949995
40928453_28604291 131.483998
40922138_28608213 132.238994
40929419_28588684 130.295001
40933516_28592950 130.548009
40924688_28567547 124.519000
40917144_28572103 125.341006
40943494_28558053 123.311000
40948797_28555041 124.363996
40976903_28570100 125.989999
40972288_28550084 127.541002
40938513_28560300 122.943999
40933853_28562941 123.042997
40884150_28583656 113.676007
40889700_28580306 117.799001
40958281_28594294 129.000001
40968413_28532356 126.802005
40967472_28528259 126.072998
40975109_28574763 125.800001
40974928_28574242 125.806996
40952891_28539331 125.021007
40952284_28535953 124.609004
40942947_28557038 122.933999
40952194_28551875 125.000003
40958934_28595506 129.113008
40954225_28597431 129.815998
40976234_28583809 125.077003
40978966_28581988 124.347997
40952966_28588422 128.945995
40951491_28582953 128.098995
40958028_28520338 123.443996
40955678_28521094 123.287001
40930541_28540319 118.026001
40930441_28540172 118.026001
40948622_28549738 124.049001
40950572_28548688 124.671995
40952097_28551716 125.000003
40969055_28542323 128.173000
40969144_28542272 128.185000
40870850_28597209 110.775998
40869773_28601324 110.828004
40961819_28593738 128.554000
40964566_28597725 127.772002
40961003_28580691 127.663004
40954616_28569053 126.199995 ;04118-91243
40953950_28588128 128.817993
40945653_28593706 131.000000
40903228_28561966 120.258005
40901069_28558409 119.162006
40910300_28567369 123.271002
40912869_28570344 124.524005
40978866_28581831 124.347997
40975128_28575178 125.792997
40959784_28557747 126.303998
40963547_28564328 126.609003
40930550_28603328 131.300000
40933428_28601488 131.005999
40920903_28560653 121.532001
40919634_28557975 120.555996
40894400_28577328 120.440003
40942531_28559853 123.168004 ;04118-91235
40942653_28567984 125.297994
40953063_28588544 128.945995
40943178_28595084 131.000000
40961850_28593500 128.554000
40968313_28589200 127.005992
40919534_28588953 131.000000
40930965_28600594 131.100003
40969238_28543375 128.173000
40962497_28547203 126.749999
40881025_28596853 115.533995
40884434_28605169 122.213997
40939756_28597406 130.199993
40929866_28603450 131.358992
40880813_28588253 112.463997
40970906_28543456 128.380997
40867628_28606069 109.302004
40911081_28576406 125.946001
40907572_28580834 126.544002
40901313_28617609 128.893998
40903169_28618822 130.440006
40896519_28627483 125.758999
40896088_28626390 125.787006
40931566_28601209 131.100003
40914866_28573997 125.985004
40918053_28577084 127.237002 ;04118-91236
40950969_28599877 129.515002
40900894_28615759 129.619005 ;04118-91239
40907700_28603956 130.399990
40924134_28605503 132.000004
40918044_28600378 131.367001 ;04118-91241
40947734_28565969 125.369999
40950716_28579044 127.308997
40903713_28612491 130.421998
40906663_28614153 130.652998
40970125_28539813 128.294007
40930944_28570547 125.478997
40958216_28538816 125.981999
40946287_28533502 121.443002
40951356_28582341 128.033995
40943409_28557897 123.261003
40929959_28577778 127.078007
40930169_28583666 128.882994
40914844_28571959 125.092007
40941894_28557547 122.778000
40974278_28573228 125.948997
40942997_28586081 129.349003
40943144_28591175 131.000000
40918053_28555584 119.995007
40937953_28551144 121.044998 ;04118-91234
40942375_28557319 122.933999
40959297_28547253 126.158993
40955872_28550897 125.801006
40967031_28527084 125.822995
40960406_28524131 125.000003
40873044_28594725 111.640001
40953347_28540816 125.069004
40953056_28540913 125.010998
40882394_28585784 112.954004
40881000_28587963 112.493000
40884938_28605741 122.458996
40886559_28602372 121.967007
40877953_28614013 116.530000
40876488_28617016 114.742993
40891531_28573503 117.938007
40891703_28573709 118.299008
40878072_28613766 117.949997
40877803_28608181 119.487996
40883406_28586256 113.761006
40887069_28587966 115.900001 ;04118-91238
40936134_28550947 120.016001
40932431_28553294 120.058993
40906678_28580338 125.873996
40900325_28582519 123.461995
40891991_28573159 117.986004
40898225_28568609 120.582999
40895919_28577975 121.167996
40898528_28597613 126.093006
40894156_28606494 125.396007
40905200_28563978 120.752002 ;04118-91246
40918938_28589841 131.000000
40924650_28595734 130.838000
40891459_28573556 117.938007
40886697_28579063 116.399003
40894969_28576975 120.999996
40931866_28542313 118.999998
40914863_28564525 122.844005
40918672_28562088 121.834997
40870481_28614631 112.822003
40867284_28611353 109.999998
40892984_28612766 125.644997
40899678_28615938 129.999996
40894947_28607166 125.711002
40893025_28612650 125.644997
40876250_28617506 114.742993
40872000_28615441 114.056002
40904359_28564197 121.011000
40888847_28594916 119.876000
40897863_28601013 126.601999
40883869_28583478 113.676007
40958263_28539825 126.165002
40954194_28540538 125.285000
40936959_28549956 119.982998
40932728_28543606 118.845998
40886813_28602484 121.967007
40892947_28605944 125.494001
40888575_28598238 120.616001
40975009_28572747 125.902999
40974972_28572686 125.902999
40974691_28572217 125.902999
40974594_28572277 125.902999
40908644_28618126 130.535991
40908681_28618176 130.535991
40884358_28621616 120.778996
40884450_28621660 120.801999
40913134_28597963 131.000000
40913353_28598000 131.000000
40884602_28621735 120.748003
40884979_28621917 120.635005
40914541_28564003 122.655002
40912078_28559763 121.475000 ;04118-91237
40897968_28627806 128.186999
40950713_28561617 125.300004
40951031_28562300 125.342001
40949534_28555316 124.592000
40875968_28618225 115.935999
40876228_28617692 114.721998
40893271_28625275 125.482002
40885260_28622052 120.635005
40884540_28621704 120.748003
40884651_28621584 120.785005
40884524_28621523 120.801999
40880731_28587688 112.275999
40887102_28623671 121.111004
40887930_28623566 122.016995
40884885_28622738 120.600002
40885204_28622154 120.635005
40885646_28622249 120.784000
40884484_28621596 120.801999
40891688_28625103 125.000003
40893049_28625191 125.482002
40889806_28624270 124.540004
40867253_28608531 109.580006
40867247_28607910 109.585001
40949316_28542031 123.922999
40945159_28537353 121.295002
40896791_28626606 125.976995
40884745_28621629 120.785005
40883431_28620996 120.259000
40879391_28619028 118.000998
40914252_28611533 131.703994
40914210_28611558 131.703994
40923803_28606031 132.003008
40914304_28611501 131.710998
40914072_28611643 131.679000
40913991_28611694 131.679000
40969628_28540849 128.226002
40978959_28570216 125.800001
40974938_28574866 125.800001
40974806_28574656 125.800001
40884009_28583569 113.676007
40903456_28612394 130.421998
40906725_28606947 130.788999
40883388_28584353 113.416004
40883475_28584416 113.416004
40959000_28595300 129.100004
40934219_28593681 130.546009
40937059_28596781 130.371992
40956009_28551138 125.801006
40942803_28541588 120.621006
40942659_28557181 122.933999
40952375_28551913 125.000003
40954966_28551425 125.689003
40950506_28554063 124.733006
40969623_28540897 128.226002
40969288_28542178 127.999997
40914553_28573691 125.879996
40914191_28573922 125.879996
40914747_28572141 125.141995
40915363_28573031 125.587995
40960069_28518975 123.629994
40960175_28518831 123.629994
40954256_28587925 128.770992
40954316_28588041 128.804004
40954175_28587788 128.770992
40954225_28587753 128.770992
40959078_28595406 129.100004
40961900_28581631 127.646000
40957153_28584803 128.265004
40954091_28586856 128.585998
40952928_28587634 128.863005
40941225_28596409 131.000000
40941306_28596553 131.000000
40924003_28583100 128.970003
40949431_28554678 124.464994
40933688_28601316 131.005999
40943922_28593206 131.000000
40943638_28592728 131.000000
40945247_28592694 131.000000
40944866_28592938 131.000000
40929841_28573847 125.999998
40894653_28577172 120.999996
40906741_28582519 125.976995 ;04118-91245
40901925_28615134 129.410999
40902050_28615188 129.410999
40959291_28595263 129.080005
40959200_28595322 129.080005
40969116_28540799 128.123003
40975069_28575084 125.792997
40975053_28575059 125.792997
40975141_28574916 125.786002
40958694_28594356 129.000001
40940444_28595950 130.554994
40940363_28595856 130.554994
40942766_28575097 126.309998
40942803_28576806 126.481001
40937291_28597681 130.371006
40937216_28597569 130.384000 ;04118-91244
40960197_28524222 125.000003
40958300_28520225 123.413998
40967103_28527447 125.891000
40967091_28527366 125.891000
40929959_28603594 131.358992
40930006_28603669 131.358992
40955209_28551838 125.689003
40914744_28571959 125.092007
40901006_28558306 119.162006
40954213_28587853 128.770992
40956953_28584509 128.265004
40969109_28576801 126.627997
40962778_28581038 127.430004
40960499_28594427 128.714995 ;04118-91230
40915597_28573016 125.626998
40915609_28573322 125.626998
40928366_28604169 131.169999
40945075_28599250 131.000000
40900006_28556653 118.831003
40942538_28558872 123.312999
40894844_28577056 120.999996
40901294_28616641 128.996001
40883331_28584319 113.416004
40969269_28576694 126.627997
40969166_28576538 126.627997
40943128_28593941 131.000000
40941556_28594959 131.000000
40943450_28593850 131.000000
40956184_28551447 125.518000 ;04118-91232
40958663_28519897 123.413998
40958334_28520034 123.413998
40937253_28550238 119.982998
40937319_28550341 120.130998
40942531_28559034 123.312999
40880859_28588181 112.463997
40970747_28542722 128.374997
40967069_28527259 125.891000
40932672_28563419 123.068000
40950897_28562416 125.342001
40948153_28563891 125.204000
40929459_28572209 126.206999
40969481_28543234 128.173000
40969875_28576288 126.471002
40969563_28574859 126.434995
40969653_28575016 126.434995
40969804_28543045 128.256000
40942788_28558878 123.312999
40949556_28542528 123.922999
40912875_28598000 130.891997
40912966_28598059 130.891997
40912975_28597859 131.000000
40969175_28542325 128.185000
40969647_28543138 128.256000
40900756_28616019 129.000001
40900513_28616316 129.000001
40970350_28575969 126.427005
40950938_28588963 129.016009
40951422_28582581 128.033995
40951100_28562516 125.362000
40924216_28605775 131.985995
40962431_28547088 126.749999
40916284_28572659 125.557997
40940075_28596041 130.554994
40969013_28576806 126.657000
40944144_28593247 131.000000
40937909_28597291 130.309009
40932563_28543356 118.813004
40932431_28543447 118.786001
40950628_28554447 124.733006
40950653_28554722 124.733006
40898044_28626572 126.477997
40898044_28626663 126.469002
40950806_28600096 129.515002
40904422_28563934 120.971003
40924072_28605863 131.985995
40923947_28605941 131.985995
40943347_28558138 123.311000
40953103_28539756 124.349001 ;04118-91233
40943344_28593681 131.000000
40977222_28571288 125.849003
40961100_28580863 127.663004
40969153_28576709 126.627997
40953025_28540803 125.004998
40932441_28543178 118.788001
40932656_28543034 118.831003
40904516_28564091 120.971003
40967150_28570638 126.669994
40948728_28554916 124.363996
40942938_28593144 131.000000
40944066_28593450 131.000000
40906834_28607013 130.788999
40910922_28600766 130.783994
40969791_28576159 126.484006
40967331_28527681 126.001003
40911025_28600866 130.783994
40912791_28598125 130.891997
40955475_28586950 128.546996
40975003_28574688 125.800001
40944031_28593388 131.000000
40923967_28605972 131.985995
40950744_28588644 129.016009
40952875_28587347 128.835006
40939956_28595859 130.554994
40967319_28527206 125.904999
40929756_28603825 131.358992
40945094_28592450 131.000000
40930309_28587594 130.059006
40962628_28580806 127.430004
40937703_28597419 130.330003
40937853_28597200 130.315000
40937341_28550181 120.130998
40955453_28552259 125.689003
40912669_28598309 130.891997
40930138_28571138 125.912999
40908541_28617859 130.535991
40903966_28623681 131.000000
40936309_28550838 120.028995
40930566_28601813 131.181003
40898159_28625597 126.735004
40910559_28567222 123.277997
40904669_28563981 120.999996
40898663_28597313 126.093006
40898322_28597034 126.093006
40969235_28540752 128.147002
40918553_28589444 131.000000
40919106_28588538 131.000000
40950959_28600134 129.999996
40895009_28607031 125.711002
40937688_28549966 120.130998
40945684_28544550 122.117993
40884622_28605603 122.213997
40925050_28605253 131.916000
40918628_28589809 131.000000
40929925_28601154 131.199997
40884869_28606178 122.549000
40884775_28605966 122.549000
40890741_28613847 125.024002
40890628_28614094 124.775003 ;04118-91240
40891516_28612100 125.314998
40923228_28582088 128.339009
40926766_28576472 126.777002
40922978_28582478 128.339009
40923119_28582569 128.339009
40914559_28595928 130.578993
40895066_28606913 125.711002
40929156_28572691 126.206999
40937178_28550284 119.982998
40873150_28594613 111.640001
40877919_28606088 119.627001
40895944_28605059 125.999998
40938275_28549297 120.184000
40932244_28553031 120.058993
40910481_28567097 123.277997
40918584_28561944 121.834997
40924663_28605494 131.916000
40920906_28607953 132.000004
40929869_28571563 125.912999
40963163_28539925 126.933002
40878356_28613184 118.132004
40932956_28543472 118.845998
40889872_28611356 125.468003
40903872_28623581 131.000000
40908422_28617797 130.535991
40924750_28595638 130.838000
40926941_28576581 126.777002
40924984_28605128 131.916000
40901050_28625966 129.468996
40872518_28594156 111.342000
40891847_28625069 125.000003
40920972_28608066 132.000004
40928597_28587854 130.231005
40913916_28611584 131.679000 ;04118-34421PLP
40889597_28616331 124.266997
40895707_28605559 125.999998
40901150_28625928 129.468996
40969726_28543090 128.256000
40969684_28543009 127.686993 ;04118-91242
40924005_28606032 131.985995
40880289_28587453 112.275999
40883431_28584384 113.416004
40880531_28588665 112.463997
40883939_28583523 113.676007
40881269_28587541 112.493000
40883859_28586467 113.761006
40872781_28594440 111.205999
40878825_28586675 111.000003
40884528_28605386 122.213997
40885088_28606627 122.549000
40885154_28605290 122.458996
40876707_28616566 114.742993
40887268_28602689 121.967007
40867363_28611429 109.999998
40876098_28617958 115.066005
40885044_28622446 120.635005
40884495_28621682 120.748003
40885124_28622300 120.635005
40886098_28622461 120.784000
40883907_28621398 120.778996
40884504_28621559 120.801999
40867259_28609031 109.580006
40884969_28621738 120.785005
40882981_28620777 120.259000
40958498_28519965 123.413998
40959976_28519095 123.629994
40957566_28520530 123.443996
40929664_28571886 125.912999
40938053_28549734 120.130998
40951288_28582039 128.033995
40950563_28562788 125.342001
40900747_28557878 119.162006
40953531_28588402 128.817993
40936730_28550569 120.028995
40954349_28588102 128.804004
40936681_28549539 119.982998
40904162_28563506 120.971003
40958193_28538316 125.981999
40961330_28581286 127.663004
40915225_28574344 125.985004
40919285_28590200 131.000000
40923494_28581664 128.339009
40954234_28587889 128.770992
40935711_28551214 120.016001
40949614_28555809 124.592000
40943102_28558266 123.311000
40950593_28554244 124.733006
40961819_28593801 128.554000
40906520_28580250 125.873996
40944561_28592971 131.000000
40941442_28557760 122.778000
40914747_28572298 125.141995
40948964_28541675 123.922999
40943178_28557467 123.261003
40914089_28573989 125.879996
40933848_28563646 123.042997
40958709_28594893 129.100004
40930291_28587094 130.059006
40955054_28587220 128.546996
40941134_28595228 131.000000
40959229_28547137 126.158993
40951102_28562524 125.362000
40916703_28572387 125.557997
40914543_28563980 122.655002
40942803_28557109 122.933999
40928888_28573113 126.206999
40893977_28577595 120.440003
40959139_28595364 129.080005
40923653_28582742 128.970003
40956096_28551292 125.801006
40955331_28552048 125.689003
40954682_28540431 125.285000
40953105_28539767 125.021007
40915343_28571954 125.092007
40892056_28574062 118.299008
40891058_28573855 117.938007
40952664_28588023 128.945995
40944466_28593194 131.000000
40919885_28589308 131.000000
40942531_28559443 123.312999
40903953_28564488 121.011000
40951836_28551289 125.000003
40958968_28594773 129.000001
40929856_28574346 125.999998
40931589_28541896 118.999998
40943976_28593297 131.000000
40943135_28590675 131.000000
40954675_28588823 129.000001
40904831_28563865 120.999996
40894748_28577114 120.999996
40960869_28523942 125.000003
40898198_28624791 126.735004
40923375_28606290 132.003008
40933006_28601757 131.005999
40912730_28598217 130.891997
40921995_28608303 132.238994
40897665_28626175 126.484006
40930615_28600236 131.100003
40894978_28607098 125.711002
40929576_28600795 131.199997
40904089_28612631 130.421998
40958518_28595784 129.113008
40924439_28605634 131.916000
40901731_28617882 128.893998
40901321_28625872 129.468996
40893046_28612596 125.644997
40898699_28597237 126.093006
40929912_28603522 131.358992
40901359_28627198 128.731999
40924144_28605819 131.985995
40936704_28596428 130.371992
40892492_28605735 125.494001
40930971_28603058 131.300000
40940767_28596321 130.554994
40890943_28613389 125.024002
40899206_28615770 129.999996
40900739_28616041 129.000001
40913173_28597996 131.000000
40924047_28605233 132.000004
40941412_28596737 131.000000
40892311_28625252 125.000003
40897479_28627697 126.629002
40950882_28600115 129.515002
40893260_28625271 125.482002
40893154_28625226 125.482002
40914278_28611517 131.710998
40914421_28611432 131.710998
40914141_28611600 131.679000
40968567_28540675 128.113004
40970160_28542832 128.256000
40976783_28569614 125.989999
40975072_28574802 125.786002
40978601_28581406 124.347997
40969411_28542731 128.185000
40975098_28575131 125.550007 ;04118-91231
40967401_28527970 126.001003
40966927_28526595 125.822995
40971008_28543945 128.380997
40979052_28581931 124.424001
40968595_28577081 126.657000
40967080_28527312 125.891000
40969307_28540760 128.147002
40969899_28575451 126.434995
40968693_28577079 126.657000
40970013_28539325 128.294007
40969107_28540838 128.123003
40969629_28540823 128.226002
40969540_28542017 127.999997
40977532_28568390 126.167997
40974831_28572451 125.902999
40974658_28573821 125.806996
40969359_28543304 128.173000
40979043_28570166 125.800001
40968620_28542570 128.173000
40901275_28627215 129.509998
40896436_28626612 125.976995
40921853_28608393 132.000004
40908693_28618193 132.000004
40921021_28608153 132.000004
40977409_28567906 125.000003
40955621_28586856 127.875995
40974928_28574565 125.938002
40960443_28518475 120.723995
40967415_28527184 122.000001
40878384_28586440 113.318996
40979128_28570116 125.800001
40979138_28581875 124.424001

[RESERVOIRS]
40955766_28586761 163.214996 04118-91230

[TANKS]

[PIPES]
1600235853 40939934_28596134 40937761_28597490 25.599998 189.000000 5.000000 0.000000 OPEN
1200226693 40897925_28625513 40898022_28625259 2.700000 106.000000 5.000000 0.000000 OPEN
1400026751 40914350_28595788 40918416_28589669 73.500000 106.000000 5.000000 0.000000 OPEN
1400026905 40941519_28596922 40945300_28598688 41.700001 142.000000 5.000000 0.000000 OPEN
1400026800 40932741_28567091 40933848_28563646 37.500000 106.000000 5.000000 0.000000 OPEN
1200194999 40938419_28549503 40945869_28544834 87.900002 142.000000 5.000000 0.000000 OPEN
1200226474 40898198_28624791 40900994_28617406 79.000000 106.000000 5.000000 0.000000 OPEN
1600023828 40969124_28540737 40969064_28540731 0.600000 142.000000 5.000000 0.000000 OPEN
1200226691 40897825_28625763 40897925_28625513 2.700000 106.000000 5.000000 0.000000 OPEN
1200194995 40932025_28542550 40934753_28540572 33.700001 99.000008 0.050000 0.000000 OPEN
1200192033 40968567_28540675 40963163_28540072 54.400002 142.000000 5.000000 0.000000 OPEN
1400026864 40937761_28597490 40924025_28606063 161.899994 189.000000 5.000000 0.000000 OPEN
1200226690 40897506_28626588 40897665_28626175 4.400000 106.000000 5.000000 0.000000 OPEN
1200226387 40876797_28607759 40875578_28609991 25.700001 97.000000 0.030000 0.000000 OPEN
1200191843 40952313_28551803 40959566_28547738 83.099998 101.000000 15.000000 0.000000 OPEN
1200189933 40954675_28588823 40955438_28590013 14.100000 106.000000 0.010000 0.000000 OPEN
1200219288 40928453_28604291 40922138_28608213 74.400002 254.000000 15.000000 0.000000 OPEN
1400026847 40929419_28588684 40933516_28592950 59.199997 101.000000 15.000000 0.000000 OPEN
1400026806 40924688_28567547 40917144_28572103 88.099998 101.000000 15.000000 0.000000 OPEN
1400026828 40943494_28558053 40948797_28555041 61.000000 101.000000 15.000000 0.000000 OPEN
1200189864 40976783_28569614 40972288_28550084 200.399979 101.000000 15.000000 0.000000 OPEN
1400026902 40938513_28560300 40933853_28562941 53.599995 101.000000 15.000000 0.000000 OPEN
1400023928 40884150_28583656 40889700_28580306 65.400002 146.000000 0.010000 0.000000 OPEN
1200189934 40955438_28590013 40958281_28594294 51.400002 106.000000 0.010000 0.000000 OPEN
1601215417 40968413_28532356 40967472_28528259 41.999996 101.000000 15.000000 0.000000 OPEN
1600023957 40975109_28574763 40974928_28574242 5.900000 106.000000 0.010000 0.000000 OPEN
1200191894 40952891_28539331 40952284_28535953 43.400002 106.000000 5.000000 0.000000 OPEN
1400026827 40942947_28557038 40952194_28551875 105.899994 101.000000 15.000000 0.000000 OPEN
1200189944 40958518_28595784 40954225_28597431 54.600002 106.000000 0.010000 0.000000 OPEN
1200189957 40976234_28583809 40978966_28581988 32.799999 106.000000 0.010000 0.000000 OPEN
1200189858 40952664_28588023 40951491_28582953 52.300003 157.000000 5.000000 0.000000 OPEN
1200191858 40957566_28520530 40955678_28521094 20.100000 106.000000 5.000000 0.000000 OPEN
1200194989 40930541_28540319 40930441_28540172 1.800000 101.000000 15.000000 0.000000 OPEN
1200195113 40948622_28549738 40950572_28548688 22.100002 106.000000 5.000000 0.000000 OPEN
1200191840 40951836_28551289 40950572_28548688 29.799999 106.000000 5.000000 0.000000 OPEN
1600023830 40969055_28542323 40969144_28542272 1.000000 101.000000 15.000000 0.000000 OPEN
1600006248 40870850_28597209 40869773_28601324 43.100002 158.000000 0.010000 0.000000 OPEN
1200189954 40961819_28593801 40964566_28597725 48.000000 50.000000 0.010000 0.000000 OPEN
1200189853 40961003_28580691 40954616_28569053 132.800003 106.000000 5.000000 0.000000 OPEN
1400026774 40953531_28588402 40945653_28593706 102.300003 101.000000 15.000000 0.000000 OPEN
1400026853 40903228_28561966 40901069_28558409 41.599998 106.000000 5.000000 0.000000 OPEN
1400026878 40910300_28567369 40912869_28570344 39.400002 157.000000 5.000000 0.000000 OPEN
1200189963 40978601_28581406 40975128_28575178 72.099998 106.000000 0.010000 0.000000 OPEN
1200189835 40959784_28557747 40963547_28564328 75.800003 106.000000 5.000000 0.000000 OPEN
1200219286 40930971_28603058 40933006_28601757 24.200001 101.000000 15.000000 0.000000 OPEN
1400026771 40920903_28560653 40919634_28557975 31.000000 106.000000 5.000000 0.000000 OPEN
1400023932 40889700_28580306 40893977_28577595 50.599998 146.000000 0.010000 0.000000 OPEN
1400026861 40942531_28559853 40942653_28567984 81.300003 101.000000 15.000000 0.000000 OPEN
1400026780 40953063_28588544 40943178_28595084 118.900002 254.000000 15.000000 0.000000 OPEN
1200189955 40961850_28593500 40968313_28589200 77.900002 106.000000 0.010000 0.000000 OPEN
1400026776 40919885_28589308 40930615_28600236 153.199997 101.000000 15.000000 0.000000 OPEN
1200191871 40969238_28543375 40962497_28547203 77.500000 101.000000 15.000000 0.000000 OPEN
1400023907 40881025_28596853 40884434_28605169 89.900002 148.000000 5.000000 0.000000 OPEN
1400026884 40939756_28597406 40929866_28603450 115.900002 254.000000 15.000000 0.000000 OPEN
1400023906 40880531_28588665 40881025_28596853 91.099998 148.000000 5.000000 0.000000 OPEN
1200191878 40971008_28543945 40972288_28550084 62.699997 101.000000 15.000000 0.000000 OPEN
1200191844 40959566_28547738 40968620_28542570 104.300003 101.000000 15.000000 0.000000 OPEN
1400023938 40869773_28601324 40867628_28606069 52.099998 158.000000 0.010000 0.000000 OPEN
1400026830 40911081_28576406 40907572_28580834 56.700001 101.000000 15.000000 0.000000 OPEN
1200219454 40901731_28617882 40903169_28618822 17.200001 50.000000 0.010000 0.000000 OPEN
1600005831 40896519_28627483 40896088_28626390 11.800000 256.000000 0.010000 0.000000 OPEN
1000248075 40930965_28600594 40931566_28601209 8.600000 101.000000 15.000000 0.000000 OPEN
1400026818 40915225_28574344 40918053_28577084 39.400002 101.000000 15.000000 0.000000 OPEN
1200189946 40954225_28597431 40950969_28599877 40.800003 106.000000 0.010000 0.000000 OPEN
1200219441 40900894_28615759 40907700_28603956 136.399994 101.000000 15.000000 0.000000 OPEN
1200219321 40924047_28605233 40918044_28600378 77.300003 101.000000 15.000000 0.000000 OPEN
1400026882 40947734_28565969 40950716_28579044 134.100006 106.000000 5.000000 0.000000 OPEN
1200219447 40904089_28612631 40906663_28614153 30.100000 50.000000 0.010000 0.000000 OPEN
1200189956 40968313_28589200 40976234_28583809 95.800003 106.000000 0.010000 0.000000 OPEN
1200191939 40970013_28539325 40968413_28532356 71.500000 101.000000 15.000000 0.000000 OPEN
1400026796 40930944_28570547 40932741_28567091 40.200001 106.000000 5.000000 0.000000 OPEN
1200191937 40958193_28538316 40946287_28533502 201.499985 106.000000 5.000000 0.000000 OPEN
1200189862 40951288_28582039 40950716_28579044 30.799997 106.000000 5.000000 0.000000 OPEN
1400026816 40943178_28557467 40942947_28557038 4.900000 101.000000 15.000000 0.000000 OPEN
1400026837 40929959_28577778 40930169_28583666 58.900002 101.000000 15.000000 0.000000 OPEN
1400026790 40915343_28571954 40941442_28557760 298.299988 157.000000 5.000000 0.000000 OPEN
1200189999 40974658_28573821 40974278_28573228 7.000000 106.000000 0.010000 0.000000 OPEN
1400026885 40942997_28586081 40943135_28590675 46.000000 101.000000 15.000000 0.000000 OPEN
1400026779 40919634_28557975 40918053_28555584 28.700001 106.000000 5.000000 0.000000 OPEN
1400026797 40937953_28551144 40942375_28557319 77.400002 157.000000 5.000000 0.000000 OPEN
1200191842 40950572_28548688 40959229_28547137 98.199997 106.000000 5.000000 0.000000 OPEN
1200191873 40962497_28547203 40955872_28550897 75.900002 101.000000 15.000000 0.000000 OPEN
1200191963 40966927_28526595 40960869_28523942 77.599998 157.000000 5.000000 0.000000 OPEN
1400023898 40873044_28594725 40870850_28597209 33.200001 147.000000 5.000000 0.000000 OPEN
1200191936 40953347_28540816 40953056_28540913 3.000000 142.000000 5.000000 0.000000 OPEN
1400023912 40882394_28585784 40881269_28587541 20.900000 147.000000 5.000000 0.000000 OPEN
1200226371 40885154_28605290 40886559_28602372 32.400002 91.999992 5.000000 0.000000 OPEN
1200226390 40877953_28614013 40876707_28616566 28.400000 91.999992 5.000000 0.000000 OPEN
1400029364 40891531_28573503 40891703_28573709 2.700000 96.000000 5.000000 0.000000 OPEN
1200226385 40878072_28613766 40877803_28608181 84.099998 91.999992 5.000000 0.000000 OPEN
1400023914 40883859_28586467 40887069_28587966 35.400002 96.000000 5.000000 0.000000 OPEN
1400026899 40935711_28551214 40932431_28553294 38.799999 149.000000 0.050000 0.000000 OPEN