; Exported Synergi model for Epanet
; Please note that not all items can be exported exactly from Synergi to Epanet
; Please review the export log file for comments about the export
; Please review all data carefully for changes during the export process
; The model is provided "as-is".  Please validate carefully
[TITLE]

[OPTIONS]
UNITS                GPM
HEADLOSS             D-W
SPECIFIC GRAVITY     1
VISCOSITY            1.106726
TRIALS               100
ACCURACY             0.001
CHECKFREQ            2
MAXCHECK             10
UNBALANCED           STOP
PATTERN              ~FLAT
DEMAND MULTIPLIER    1
EMITTER EXPONENT     0.5
QUALITY              NONE
DIFFUSIVITY          1
TOLERANCE            0.01
DAMPLIMIT 0.100000

[TIMES]
DURATION             24:00:00
HYDRAULIC TIMESTEP   00:15:00
QUALITY TIMESTEP     00:06:00
PATTERN TIMESTEP     00:15:00
PATTERN START        00:00:00
REPORT TIMESTEP      00:15:00
REPORT START         00:00:00
START CLOCKTIME      00:00:00 AM
STATISTIC            NONE

[JUNCTIONS]
39823652_29924060 139.733001 ;03809-90689-No data available
39818552_29922771 138.043002
39825141_29924554 139.583996
39823711_29924079 139.341993
39754038_29930028 126.399006
39755828_29930359 126.271795
39746522_29927659 126.279600
39761747_29921931 123.999999
39761622_29921725 123.999999
39759347_29930641 126.094699
39763888_29932334 126.555601
39758591_29915413 123.999999
39773588_29938228 129.040408
39741781_29926441 126.620500
39770824_29920475 125.376994
39770801_29929750 127.294998
39792475_29994850 145.734998
39794316_29992959 145.899992
39793456_29986584 143.862396
39796347_29983469 143.999996
39805600_29991125 148.402500
39810222_29992772 149.531603
39795266_29948972 135.147598
39795438_29949144 135.230802
39816466_29993119 149.653000
39816956_29993141 149.185001
39773684_29938275 129.064304
39773563_29938531 129.000001
39828084_29991966 150.996602
39823672_29993434 150.721205
39778106_30012719 139.000004
39775122_30017981 139.000004
39796984_29982591 143.952697
39797734_29981013 143.578599
39799241_29976497 142.847592
39805547_29980253 144.360002
39803959_29978606 143.777694
39802353_29989369 146.499500
39788294_29942384 132.464999
39789138_29943038 132.842808
39773241_29939184 129.066602
39836756_29955272 146.584397
39836134_29950128 145.835996
39774072_30019638 139.000004
39773822_30020019 139.000004
39792115_29995185 145.697009
39805881_29979691 144.830002 ;03809-90695
39811303_29972084 144.047101
39813041_29967409 143.553205
39774388_29937028 129.000001
39782672_29940375 130.514095
39827981_29985281 150.326205
39828169_29979894 149.816897
39836163_29950075 145.862506
39781875_30005963 140.307403
39799297_29976319 142.823194
39817203_29993141 149.343996
39822231_29993356 150.558703
39815944_29974153 146.362001 ;03809-90694
39800069_29952519 137.576398
39837431_29961741 148.734405
39811534_29973519 144.310591
39808606_29973213 143.646000
39780266_29913984 127.175005
39774219_29937259 129.069699
39773664_29936485 128.848010
39827966_29985597 150.356297
39828169_29990678 150.899994
39815766_29993075 149.925002
39792916_29946413 134.657395
39795106_29948816 135.014210
39783494_30003044 141.431791
39783584_30002934 141.478197
39777691_29927106 129.149006
39778147_29925700 129.043505
39774828_30018472 139.000004
39775097_30018731 139.000004
39790522_30013859 141.626011
39793981_30010606 145.977206
39785697_30010484 140.781998
39782134_30006259 139.999999
39797016_29990131 145.332594
39799759_29987356 145.323702
39800316_29986663 145.335003
39800466_29988331 145.525606
39771778_29942319 129.341599
39771122_29943763 129.576998
39805397_29980497 144.378801
39795800_29949509 135.412707
39782531_30006725 141.007993 ;03809-90684
39837472_29960406 148.317203
39837072_29957909 147.587098
39837534_29960781 148.447911
39837775_29961269 148.708797
39801909_29969688 141.828511
39807981_29973331 143.597398
39789694_29943463 133.123991
39790438_29944047 133.496991
39774116_29937478 129.071001
39800838_30004147 148.000003
39802453_30002622 149.326508
39782313_30005173 140.496703
39782257_30005141 140.497494
39773079_29997619 140.952611
39775700_29932399 129.080005
39775934_29932488 129.136002
39773706_29936401 128.852001
39776937_29930078 129.281007
39776998_29930098 129.300001
39777781_29930594 129.493701
39826876_29914690 138.544004
39826611_29914986 138.520992
39822304_29932023 139.490997
39822499_29932100 139.549998
39822969_29932128 139.690995
39819637_29938993 139.425997
39819898_29939096 139.190997
39820456_29939419 139.477008
39818671_29941990 140.395993
39818744_29942391 140.192006
39818521_29941930 140.531008
39818537_29941891 140.517000
39817613_29941565 140.264011
39810726_29938800 138.404999
39810761_29938814 138.414989
39810637_29939151 138.457991
39810710_29938840 138.410003
39810743_29938760 138.400999
39814950_29930741 137.664002
39818437_29922790 138.009990
39818445_29922750 138.008000
39818451_29922714 138.007004
39818461_29922667 138.005004
39818478_29922756 138.018994
39819787_29938594 139.404007
39808099_29971402 143.199999
39807022_29968509 142.359697
39754169_29929434 126.269898
39762297_29934163 126.832608
39767331_29942488 129.327999 ;03809-90682
39747991_29922250 125.150003
39754256_29929044 126.183196
39763272_29933013 126.629801
39759478_29930059 126.010295
39761097_29923050 125.004998
39767050_29916878 123.999999 ;03809-33708
39770866_29920428 125.372204
39766509_29916466 123.999999
39755453_29931531 126.559303
39754031_29936053 126.477002 ;03809-90696
39745303_29921684 125.136804
39766266_29916738 123.999999
39746297_29928713 126.512897
39760513_29914731 123.999999
39769016_29906763 124.574001 ;03809-90681
39754572_29917250 123.999999
39746197_29931584 126.427005 ;03809-90680
39741622_29926638 126.717396 ;03809-3105
39785272_29957613 135.038302
39792663_29995044 146.000005
39792772_29979306 142.615597
39801741_30002281 148.944597
39794963_29941738 134.332792
39796006_29941219 134.523105
39799444_29978963 143.381392
39794544_29986825 144.073806
39805400_29954825 139.687497
39800350_29952644 138.000000
39792447_29977650 142.219408
39797059_29965881 139.951993 ;03809-90683
39787850_29976897 141.469100
39786578_29976369 141.226305
39779091_29913347 126.249601
39780028_29913978 127.004207
39789544_29945184 133.499996
39793509_29945853 134.999997
39829428_29990719 150.899994
39821041_29961228 144.257906
39833578_29962072 147.937198
39846372_29962747 148.624402
39851941_29963088 146.441196
39778384_30012903 139.000004
39781319_30016088 139.044011
39786181_30010050 141.080510
39792525_30002913 144.418706
39838250_29961438 148.999998
39840869_29961303 148.990910
39842119_29962413 149.170704
39844941_29962838 148.973004
39859344_29964681 145.246395
39857788_29954363 146.733002 ;03809-90687
39794722_29949847 135.213807
39789944_29959522 136.844192
39802784_29972256 142.455002
39804153_29972063 142.736892
39816075_29987081 148.546798
39809466_29985363 145.755489
39810216_29994141 150.055096
39810213_29994563 150.518994
39812553_29980909 145.601499
39816163_29982819 147.376497
39791897_29978784 142.336200
39833328_29935250 142.081211
39785338_29957644 135.060803
39785216_29957988 135.139598
39789866_29959694 136.906802
39785709_29957816 135.186600
39785084_29960516 135.923206
39782575_29971056 139.531795
39837163_29991522 153.650998 ;03809-90686
39837281_29955238 146.623306
39851897_29963153 146.471799
39786319_29976922 141.340391
39787094_29975122 140.936602
39783681_29971284 139.656801
39788147_29970553 139.995302
39790716_29963306 138.606596
39836584_29934944 143.511989 ;03809-90688
39813019_29958047 141.713197
39813253_29957378 141.651507
39819338_29912347 136.936995
39787281_29949863 133.169002 ;03809-90692
39788669_29941669 132.434498
39784753_29959253 135.451207
39824188_29946603 142.218505
39820650_29954556 143.990006 ;03809-90690
39818606_29942800 140.300595
39815022_29952622 141.271000
39836591_29961453 148.399402
39836763_29960888 148.218995
39817150_30005741 150.999997
39816941_30006988 150.999997
39782991_29981691 141.666399
39787863_29975184 141.023099
39794153_29987272 144.085005
39796231_29942266 134.464904
39800919_29945531 136.228806
39815456_29952653 141.447697
39810641_29971141 143.734608
39783294_29938981 130.458805
39785244_29934369 130.634506
39791947_29935259 132.810001
39785522_29957728 135.122799
39835016_29985197 150.999997
39834578_29978231 150.999997
39826019_29941553 141.673497
39801181_29946775 136.431789
39822300_29992359 150.465899
39829103_29985263 150.326299
39834791_29961941 148.213702
39834894_29963363 148.787704
39840700_29951009 145.899090
39794222_29992856 146.000005
39772303_29942553 129.440904
39807769_30005063 150.999997
39807703_30006388 149.931002 ;03809-90685
39785319_29981625 142.056897
39783328_29946369 131.804992
39783853_29945253 131.731797
39816994_29994744 150.744003
39832475_29944853 144.632795
39859300_29964856 145.329999
39790847_29984028 143.208408
39777403_29925444 128.263004 ;03809-90691
39832081_29944503 144.516802
39835328_29969309 150.776001 ;03809-90693
39796900_29990022 145.284392
39850375_29970931 148.605604
39804738_29992566 148.900209
39815784_29992141 149.828199
39792578_29991103 144.583691
39805559_29954309 139.999999
39805703_29953891 139.578006
39777859_29925609 128.904500
39846319_29962841 148.672604
39844144_29968359 149.921495
39835202_29985195 150.999997 ;03809-33106
39837084_29985172 150.999997
39820766_29982682 148.743000
39803219_29998844 149.984998
39754104_29929731 126.269898
39761409_29921273 123.999999
39763061_29933049 126.629801
39765927_29917105 123.999999
39746198_29929203 126.512897
39755303_29932008 126.559303
39762173_29910964 123.999999
39759585_29929571 126.010295
39741603_29926398 126.578000
39741720_29926657 126.717396
39779613_29913699 127.004207
39818511_29904158 135.754500
39772760_29942756 129.440904
39773139_29938007 129.040408
39794769_29948446 135.014210
39795619_29949327 135.412707
39788926_29941240 132.434498
39790066_29943755 133.123991
39780970_29907728 125.403997
39832585_29944960 144.632795
39796678_29942489 134.464904
39794501_29950295 135.213807
39773900_29937877 129.071001
39783497_29938524 130.458805
39777631_29925527 128.317001
39789326_29945634 133.499996
39774481_29936941 129.000001
39768063_29906050 123.999999
39773647_29936511 128.848010
39793586_29945777 134.999997
39773402_29938858 129.066602
39770785_29920516 125.376994
39775230_29932227 129.080005
39773722_29936368 128.852001
39777473_29930255 129.493701
39777676_29927150 129.149006
39826880_29914646 138.544004
39822697_29932178 139.549998
39820208_29939218 139.477008
39818764_29942027 140.395993
39818562_29941832 140.517000
39817149_29941378 140.264011
39811225_29939000 138.414989
39810648_29938993 138.457991
39810766_29938704 138.400999
39818427_29922839 138.009990
39818456_29922690 138.007004
39818515_29922763 138.018994
39824185_29924237 139.341993
39819963_29938126 139.404007
39785044_29958458 135.139598
39783902_30002548 141.478197
39794871_29986447 144.073806
39837780_29955199 146.623306
39816969_29995243 150.744003
39801291_30002063 148.944597
39775369_30017546 139.000004
39811303_29971933 144.047101
39786086_29977365 141.340391
39784171_29971385 139.656801
39817703_29993162 149.343996
39822340_29991861 150.465899
39829927_29990742 150.899994
39829603_29985257 150.326299
39836704_29960559 148.218995
39846291_29962883 148.672604
39851787_29963333 146.471799
39797951_29980582 143.578599
39778789_30013196 139.000004
39810218_29993641 150.055096
39787970_29974696 141.023099
39859450_29964192 145.246395
39834930_29963862 148.787704
39796547_29989668 145.284392
39799460_29975846 142.823194
39803503_29978402 143.777694
39800904_29988572 145.525606
39813427_29956909 141.651507
39790165_29959074 136.844192
39815813_29991642 149.828199
39787898_29976914 141.469100
39793177_29979599 142.615597
39824172_29993451 150.721205
39827939_29986096 150.356297
39773645_30019176 139.000004
39786552_30009715 141.080510
39815935_29952798 141.447697
39786165_29958022 135.186600
39809036_29973193 143.646000
39792661_29977198 142.219408
39837560_29960880 148.447911
39837136_29962124 148.734405
39804561_29993034 148.900209
39775434_30019100 139.000004
39784581_29959722 135.451207
39793880_29992491 146.000005
39800366_29986609 145.335003
39800474_30004490 148.000003
39790240_30014098 141.626011
39782333_30006492 141.675004
39800809_29952842 138.000000
39805479_29954567 139.999999
39792995_29995418 146.000005
39838748_29961391 148.999998
39859416_29964853 144.891003
39796007_29983835 143.999996
39781822_30004895 140.497494
39808094_29971355 143.199999
39805133_29980922 144.378801

[RESERVOIRS]
39741425_29926356 173.816971 Pr1
39781094_29907244 173.247955 Pr2
39826883_29914601 173.005737 Pr3
39767806_29905797 173.626434 Pr4
39762219_29910466 173.666183 Pr5
39741369_29926578 173.789032 Pr6
39773306_30018809 165.363785 Pr7
39818441_29903663 173.032455 Pr8
39859531_29964850 172.919159 Pr9
39836584_29949805 172.989670 Pr10
39784819_29957401 165.364273 Pr11
39773520_30020417 165.363800 Pr12

[TANKS]

[PIPES]
1200284622 39823652_29924060 39818552_29922771 52.642998 72.881340 0.010000 0.000000 OPEN
1200284621 39825141_29924554 39824185_29924237 10.067692 72.881340 0.010000 0.000000 OPEN
3000347677 39823711_29924079 39823652_29924060 0.618000 72.881340 0.010000 0.000000 OPEN
1200285870 39754038_29930028 39755828_29930359 18.230000 224.942383 0.030000 0.000000 OPEN
1200285865 39746522_29927659 39754038_29930028 78.969994 224.942383 0.030000 0.000000 OPEN
1200285936 39761747_29921931 39761622_29921725 2.400000 96.975166 0.030000 0.000000 OPEN
1200285871 39755828_29930359 39759347_29930641 35.290001 224.942383 0.030000 0.000000 OPEN
1200285872 39759347_29930641 39763888_29932334 48.699997 224.942383 0.030000 0.000000 OPEN
1200285937 39758591_29915413 39761409_29921273 65.525673 96.975166 0.030000 0.000000 OPEN
1200285873 39763888_29932334 39773139_29938007 108.944321 224.942383 0.030000 0.000000 OPEN
1200285862 39741781_29926441 39746522_29927659 48.970001 224.942383 0.030000 0.000000 OPEN
3000347331 39770785_29920516 39770801_29929750 129.596283 72.881340 0.010000 0.000000 OPEN
1200286342 39792475_29994850 39794316_29992959 26.389999 145.962616 0.030000 0.000000 OPEN
1200286198 39793456_29986584 39796007_29983835 37.498360 96.975166 0.030000 0.000000 OPEN
1200284903 39805600_29991125 39810222_29992772 49.850002 96.975166 0.030000 0.000000 OPEN
1200285949 39795266_29948972 39795438_29949144 2.430000 224.942383 0.030000 0.000000 OPEN
1200285008 39816466_29993119 39816956_29993141 4.930000 96.975166 0.030000 0.000000 OPEN
1200285880 39773684_29938275 39773563_29938531 2.840000 145.962616 0.030000 0.000000 OPEN
1200284917 39828084_29991966 39824172_29993451 47.582211 96.975166 0.030000 0.000000 OPEN
1200275288 39778106_30012719 39775369_30017546 55.492065 145.962616 0.030000 0.000000 OPEN
1200286199 39796347_29983469 39796984_29982591 10.839999 96.975166 0.030000 0.000000 OPEN
1200286201 39797951_29980582 39799241_29976497 42.844749 96.975166 0.030000 0.000000 OPEN
1200285004 39805547_29980253 39803959_29978606 24.639999 96.975166 0.030000 0.000000 OPEN
1200285006 39805600_29991125 39802353_29989369 36.930000 96.975166 0.030000 0.000000 OPEN
1200285943 39788294_29942384 39789138_29943038 10.669999 224.942383 0.030000 0.000000 OPEN
1200285881 39773402_29938858 39773241_29939184 3.640374 145.962616 0.030000 0.000000 OPEN
1200284954 39836756_29955272 39836134_29950128 51.820000 224.942383 0.030000 0.000000 OPEN
1200275298 39774072_30019638 39773822_30020019 4.570000 145.962616 0.030000 0.000000 OPEN
1000250133 39792115_29995185 39792475_29994850 4.920000 145.962616 0.030000 0.000000 OPEN
1200285002 39805881_29979691 39805547_29980253 6.530000 145.962616 0.030000 0.000000 OPEN
1200284996 39811303_29971933 39813041_29967409 50.019142 96.975166 0.030000 0.000000 OPEN
1200285890 39774481_29936941 39782672_29940375 90.090767 224.942383 0.030000 0.000000 OPEN
1200284927 39827981_29985281 39828169_29979894 53.910000 96.975166 0.030000 0.000000 OPEN
1200284955 39836134_29950128 39836163_29950075 0.600000 224.942383 0.030000 0.000000 OPEN
1200275283 39781875_30005963 39778106_30012719 77.379997 145.962616 0.030000 0.000000 OPEN
1200286202 39799241_29976497 39799297_29976319 1.860000 96.975166 0.030000 0.000000 OPEN
1200284914 39817703_29993162 39822231_29993356 45.325947 96.975166 0.030000 0.000000 OPEN
1200284929 39815944_29974153 39828169_29979894 140.669998 96.975166 0.030000 0.000000 OPEN
1200285013 39800069_29952519 39837136_29962124 397.848358 224.942383 0.030000 0.000000 OPEN
1200284998 39811534_29973519 39809036_29973193 25.197088 96.975166 0.030000 0.000000 OPEN
1200285942 39782672_29940375 39788294_29942384 62.040001 224.942383 0.030000 0.000000 OPEN
1200285902 39780266_29913984 39780970_29907728 63.213455 145.962616 0.030000 0.000000 OPEN
1200285896 39774219_29937259 39773647_29936511 9.440432 145.962616 0.030000 0.000000 OPEN
1200284922 39827939_29986096 39828169_29990678 45.993252 96.975166 0.030000 0.000000 OPEN
1200284912 39815766_29993075 39816466_29993119 7.000000 96.975166 0.030000 0.000000 OPEN
1200284930 39811534_29973519 39815944_29974153 44.540001 96.975166 0.030000 0.000000 OPEN
1200285947 39792916_29946413 39794769_29948446 27.512320 224.942383 0.030000 0.000000 OPEN
1200285948 39795106_29948816 39795266_29948972 2.240000 224.942383 0.030000 0.000000 OPEN
1200275290 39783494_30003044 39783584_30002934 1.430000 145.962616 0.030000 0.000000 OPEN
1200285900 39777691_29927106 39778147_29925700 14.780000 145.962616 0.030000 0.000000 OPEN
1200275294 39774828_30018472 39775097_30018731 3.740000 96.975166 0.030000 0.000000 OPEN
1200275281 39790522_30013859 39793981_30010606 47.482998 96.975166 0.030000 0.000000 OPEN
1200275280 39785697_30010484 39790240_30014098 62.793182 96.975166 0.030000 0.000000 OPEN
1200275284 39782134_30006259 39781875_30005963 3.960000 96.975166 0.030000 0.000000 OPEN
1200286190 39797016_29990131 39799759_29987356 39.029999 145.962616 0.030000 0.000000 OPEN
1200286349 39800316_29986663 39799759_29987356 8.870000 145.962616 0.030000 0.000000 OPEN
1200285007 39802353_29989369 39800904_29988572 16.536510 96.975166 0.030000 0.000000 OPEN
1200285882 39773241_29939184 39771778_29942319 34.639999 145.962616 0.030000 0.000000 OPEN
1200285883 39771778_29942319 39771122_29943763 15.849999 145.962616 0.030000 0.000000 OPEN
1200285003 39805547_29980253 39805397_29980497 2.870000 145.962616 0.030000 0.000000 OPEN
1200285950 39795619_29949327 39795800_29949509 2.570355 224.942383 0.030000 0.000000 OPEN
1200285974 39795800_29949509 39800069_29952519 52.660000 224.942383 0.030000 0.000000 OPEN
1200285901 39778147_29925700 39780266_29913984 119.680000 145.962616 0.030000 0.000000 OPEN
1200284918 39822231_29993356 39823672_29993434 14.440000 96.975166 0.030000 0.000000 OPEN
1200286344 39783902_30002548 39792115_29995185 111.063675 145.962616 0.030000 0.000000 OPEN
1200284995 39811534_29973519 39811303_29972084 14.540000 96.975166 0.030000 0.000000 OPEN
1200275282 39785697_30010484 39782531_30006725 49.170002 96.975166 0.030000 0.000000 OPEN
1200275285 39782531_30006725 39782333_30006492 3.060903 96.975166 0.030000 0.000000 OPEN
1200275293 39775122_30017981 39774828_30018472 5.740000 145.962616 0.030000 0.000000 OPEN
1200284951 39837472_29960406 39837072_29957909 25.280001 224.942383 0.030000 0.000000 OPEN
1200285015 39837560_29960880 39837775_29961269 4.519026 224.942383 0.030000 0.000000 OPEN
1200286200 39796984_29982591 39797734_29981013 17.500000 96.975166 0.030000 0.000000 OPEN
1200286351 39801909_29969688 39799460_29975846 66.324867 96.975166 0.030000 0.000000 OPEN
1200284904 39810222_29992772 39815766_29993075 55.510002 96.975166 0.030000 0.000000 OPEN
1200284999 39808606_29973213 39807981_29973331 6.530000 96.975166 0.030000 0.000000 OPEN
1200285944 39789138_29943038 39789694_29943463 7.000000 224.942383 0.030000 0.000000 OPEN
1200285946 39790438_29944047 39792916_29946413 34.340000 224.942383 0.030000 0.000000 OPEN
1200285888 39774116_29937478 39774219_29937259 2.420000 224.942383 0.030000 0.000000 OPEN
1200285889 39774219_29937259 39774388_29937028 2.850000 224.942383 0.030000 0.000000 OPEN
1200284923 39827966_29985597 39827981_29985281 3.160000 96.975166 0.030000 0.000000 OPEN
1200275297 39774828_30018472 39774072_30019638 13.890000 145.962616 0.030000 0.000000 OPEN
1200284952 39837072_29957909 39836756_29955272 26.549999 224.942383 0.030000 0.000000 OPEN
1200285014 39837431_29961741 39837775_29961269 5.810000 224.942383 0.030000 0.000000 OPEN
1200284913 39816956_29993141 39817203_29993141 2.460000 96.975166 0.030000 0.000000 OPEN
1200286343 39794316_29992959 39797016_29990131 39.090000 145.962616 0.030000 0.000000 OPEN
1200285945 39790066_29943755 39790438_29944047 4.729144 224.942383 0.030000 0.000000 OPEN
1200285874 39773588_29938228 39773684_29938275 1.070000 224.942383 0.030000 0.000000 OPEN
1200285887 39773684_29938275 39773900_29937877 4.532750 224.942383 0.030000 0.000000 OPEN
1200284919 39828084_29991966 39828169_29990678 12.900001 96.975166 0.030000 0.000000 OPEN
1200284945 39837472_29960406 39837534_29960781 3.820000 224.942383 0.030000 0.000000 OPEN
1200275382 39793981_30010606 39800474_30004490 89.200386 96.975166 0.030000 0.000000 OPEN
1200274235 39800838_30004147 39802453_30002622 27.049999 96.975166 0.030000 0.000000 OPEN
1601431870 39781875_30005963 39782313_30005173 9.030001 145.962616 0.030000 0.000000 OPEN
1200275289 39782313_30005173 39783494_30003044 24.320002 145.962616 0.030000 0.000000 OPEN
1601431916 39782313_30005173 39782257_30005141 0.650000 72.881340 0.010000 0.000000 OPEN
1601431869 39781822_30004895 39773079_29997619 120.071617 72.881340 0.010000 0.000000 OPEN
3000347335 39770801_29929750 39775230_29932227 50.925156 72.881340 0.010000 0.000000 OPEN
3000347345 39775700_29932399 39775934_29932488 2.504000 72.881340 0.010000 0.000000 OPEN
3000347339 39773722_29936368 39775934_29932488 45.952904 145.962616 0.010000 0.000000 OPEN
3000347354 39773664_29936485 39773706_29936401 0.930000 145.962616 0.030000 0.000000 OPEN
3000347347 39775934_29932488 39776937_29930078 26.122000 145.962616 0.010000 0.000000 OPEN
3000347368 39776937_29930078 39777676_29927150 31.084000 145.962616 0.010000 0.000000 OPEN
3000347371 39776937_29930078 39776998_29930098 0.643000 101.274063 0.010000 0.000000 OPEN
3000347369 39777473_29930255 39777781_29930594 5.046281 101.274063 0.010000 0.000000 OPEN
3000347432 39826880_29914646 39826876_29914690 0.446420 101.274063 0.010000 0.000000 OPEN
3000347438 39826876_29914690 39826611_29914986 4.286000 101.274063 0.010000 0.000000 OPEN
3000347444 39822304_29932023 39822499_29932100 2.091000 101.274063 0.010000 0.000000 OPEN
3000347442 39822697_29932178 39822969_29932128 2.926186 101.274063 0.010000 0.000000 OPEN
3000347470 39819637_29938993 39819898_29939096 2.809000 101.274063 0.010000 0.000000 OPEN
3000347468 39820208_29939218 39820456_29939419 3.329693 101.274063 0.010000 0.000000 OPEN
3000347494 39818764_29942027 39818744_29942391 3.883874 101.274063 0.010000 0.000000 OPEN
3000347512 39818521_29941930 39818671_29941990 1.615000 101.274063 0.010000 0.000000 OPEN
3000347467 39819637_29938993 39818562_29941832 30.357182 101.274063 0.010000 0.000000 OPEN
3000347517 39818537_29941891 39818521_29941930 0.420000 101.274063 0.010000 0.000000 OPEN
3000347519 39817613_29941565 39818521_29941930 9.786000 101.274063 0.010000 0.000000 OPEN
3000347613 39810726_29938800 39810761_29938814 0.374000 101.274063 0.010000 0.000000 OPEN
3000347487 39811225_29939000 39817149_29941378 63.828033 101.274063 0.010000 0.000000 OPEN
3000347607 39810637_29939151 39810648_29938993 1.656528 101.274063 0.010000 0.000000 OPEN
3000347615 39810710_29938840 39810726_29938800 0.427000 101.274063 0.010000 0.000000 OPEN
3000347618 39810726_29938800 39810743_29938760 0.436000 101.274063 0.010000 0.000000 OPEN
3000347535 39810766_29938704 39814950_29930741 89.949638 101.274063 0.010000 0.000000 OPEN
3000347623 39814950_29930741 39818427_29922839 86.541298 101.274063 0.010000 0.000000 OPEN
3000347639 39818437_29922790 39818445_29922750 0.411000 101.274063 0.010000 0.000000 OPEN
3000347642 39818445_29922750 39818451_29922714 0.364000 101.274063 0.010000 0.000000 OPEN
3000347634 39818456_29922690 39818461_29922667 0.240110 101.274063 0.010000 0.000000 OPEN
3000347646 39818445_29922750 39818478_29922756 0.338000 72.881340 0.010000 0.000000 OPEN
3000347636 39818515_29922763 39818552_29922771 0.379135 72.881340 0.010000 0.000000 OPEN
3000347415 39826611_29914986 39825141_29924554 97.420998 101.274063 0.010000 0.000000 OPEN
3000347666 39825141_29924554 39822304_29932023 79.900002 101.274063 0.010000 0.000000 OPEN
3000347441 39822304_29932023 39819963_29938126 65.369186 101.274063 0.010000 0.000000 OPEN
3000347803 39819787_29938594 39819637_29938993 4.270000 101.274063 0.010000 0.000000 OPEN
3000705765 39807981_29973331 39808099_29971402 19.372999 145.962616 0.030000 0.000000 OPEN
1200285001 39808094_29971355 39807022_29968509 30.684217 145.962616 0.030000 0.000000 OPEN
1200285000 39807981_29973331 39805881_29979691 67.502998 145.962616 0.030000 0.000000 OPEN
1200285005 39805133_29980922 39800366_29986609 74.929710 145.962616 0.030000 0.000000 OPEN
1200285869 39754104_29929731 39754038_29930028 3.041369 96.975166 0.030000 0.000000 OPEN
1200285879 39762297_29934163 39767331_29942488 129.149994 96.975166 0.030000 0.000000 OPEN
1200285867 39747991_29922250 39754256_29929044 139.949997 96.975166 0.030000 0.000000 OPEN
1200285878 39763061_29933049 39762297_29934163 14.286031 96.975166 0.030000 0.000000 OPEN
1200285933 39759585_29929571 39761097_29923050 66.962601 96.975166 0.030000 0.000000 OPEN
1200285923 39767050_29916878 39770866_29920428 54.629997 96.975166 0.030000 0.000000 OPEN
1200285922 39766509_29916466 39767050_29916878 6.790000 96.975166 0.030000 0.000000 OPEN
1200285876 39755303_29932008 39754031_29936053 42.403130 96.975166 0.030000 0.000000 OPEN
1200285934 39761747_29921931 39761097_29923050 12.920000 96.975166 0.030000 0.000000 OPEN
1200285866 39745303_29921684 39747991_29922250 27.608999 96.975166 0.030000 0.000000 OPEN
1200285935 39765927_29917105 39761747_29921931 63.907116 96.975166 0.030000 0.000000 OPEN
1200285932 39759347_29930641 39759478_29930059 5.930000 96.975166 0.030000 0.000000 OPEN
1200285863 39746522_29927659 39746297_29928713 10.770000 87.000000 0.030000 0.000000 OPEN
1200285877 39763888_29932334 39763272_29933013 10.450000 96.975166 0.030000 0.000000 OPEN
1200285921 39766509_29916466 39766266_29916738 3.630000 96.975166 0.030000 0.000000 OPEN
1200285868 39754256_29929044 39754169_29929434 4.010000 96.975166 0.030000 0.000000 OPEN
1200285939 39758591_29915413 39760513_29914731 25.109999 74.980797 0.030000 0.000000 OPEN
1200285916 39768063_29906050 39769016_29906763 11.951784 96.975166 0.030000 0.000000 OPEN
1200285875 39755828_29930359 39755453_29931531 12.310000 96.975166 0.030000 0.000000 OPEN
1200285938 39758591_29915413 39754572_29917250 44.199997 96.975166 0.030000 0.000000 OPEN
1200285864 39746198_29929203 39746197_29931584 27.920214 87.000000 0.030000 0.000000 OPEN
1200285920 39762173_29910964 39766509_29916466 75.181412 96.975166 0.030000 0.000000 OPEN
1200285861 39741720_29926657 39741781_29926441 2.347609 74.980797 0.030000 0.000000 OPEN
1200285857 39741603_29926398 39741781_29926441 1.830034 224.942383 0.030000 0.000000 OPEN
1200285860 39741369_29926578 39741622_29926638 2.600000 100.000000 0.030000 0.000000 OPEN ;03809-3105
1200286188 39792475_29994850 39792663_29995044 2.680000 96.975166 0.030000 0.000000 OPEN
1200286203 39796984_29982591 39793177_29979599 48.702789 96.975166 0.030000 0.000000 OPEN
1200286364 39801291_30002063 39792995_29995418 108.372665 96.975166 0.030000 0.000000 OPEN
1200285955 39794963_29941738 39796006_29941219 27.379999 96.975166 0.030000 0.000000 OPEN
1200286197 39799444_29978963 39794871_29986447 89.252457 74.980797 0.030000 0.000000 OPEN
1200284932 39805400_29954825 39800809_29952842 50.008419 96.975166 0.030000 0.000000 OPEN
1200286207 39792661_29977198 39797059_29965881 130.615524 96.975166 0.030000 0.000000 OPEN
1200286208 39787850_29976897 39786578_29976369 13.760000 96.975166 0.030000 0.000000 OPEN
1200285917 39779091_29913347 39779613_29913699 6.296592 96.975166 0.030000 0.000000 OPEN
1200285956 39790438_29944047 39789544_29945184 14.459999 96.975166 0.030000 0.000000 OPEN
1200285953 39792916_29946413 39793509_29945853 8.150000 96.975166 0.030000 0.000000 OPEN
1200284920 39828169_29990678 39829428_29990719 12.610000 96.975166 0.030000 0.000000 OPEN
1200284940 39821041_29961228 39833578_29962072 126.700005 96.975166 0.030000 0.000000 OPEN
1200284957 39846372_29962747 39851941_29963088 56.389999 224.942383 0.030000 0.000000 OPEN
1200275287 39778789_30013196 39781319_30016088 45.384953 96.975166 0.030000 0.000000 OPEN
1200275279 39786552_30009715 39792525_30002913 108.672462 96.975166 0.030000 0.000000 OPEN
1200275329 39774072_30019638 39773645_30019176 6.287148 75.980545 3.000000 0.000000 OPEN
1200284946 39838748_29961391 39840869_29961303 21.273308 224.942383 0.030000 0.000000 OPEN
1200284947 39840869_29961303 39842119_29962413 18.700001 224.942383 0.030000 0.000000 OPEN
1200284949 39844941_29962838 39846372_29962747 14.390000 224.942383 0.030000 0.000000 OPEN
1200284965 39859450_29964192 39857788_29954363 103.107162 99.974396 0.030000 0.000000 OPEN